
**** 05/22/23 12:32:11 **** PSpice 22.1.0 (9 December 2022) *** ID# 0 ********

 ** Profile: "SCHEMATIC1-wc"  [ d:\anul 2.2\sem 2\cad\proiect\proiectfinal-pspicefiles\schematic1\wc.sim ] 


 ****     CIRCUIT DESCRIPTION


******************************************************************************




** Creating circuit file "wc.cir" 
** WARNING: THIS AUTOMATICALLY GENERATED FILE MAY BE OVERWRITTEN BY SUBSEQUENT SIMULATIONS

*Libraries: 
* Profile Libraries :
* Local Libraries :
.LIB "../../../proiectfinal-pspicefiles/redled.lib" 
* From [PSPICE NETLIST] section of C:\Users\stefa\AppData\Roaming\SPB_Data\cdssetup\OrCAD_PSpice\22.1.0\PSpice.ini file:
.lib "nom.lib" 

*Analysis directives: 
.DC LIN PARAM r 50k 60k 1k 
.WCASE DC V([DOM]) YMAX VARY BOTH  HI 
.OPTIONS ADVCONV
.PROBE64 V(alias(*)) I(alias(*)) W(alias(*)) D(alias(*)) NOISE(alias(*)) 
.INC "..\SCHEMATIC1.net" 



**** INCLUDING SCHEMATIC1.net ****
* source PROIECTFINAL
R_R         0 N18852 R_R 120k TC=0,0 
.model        R_R RES R=1 DEV=1% TC1=0 TC2=0
R_R72         N194781 N25131 R_R72 0.2k TC=0,0 
.model        R_R72 RES R=1 DEV=2% TC1=0 TC2=0
R_Rs         0 SENZ  {r} TC=0,0 
R_R4         0 N19310 R_R4 110k TC=0,0 
.model        R_R4 RES R=1 DEV=1% TC1=0 TC2=0
R_R8         VREF 0 R_R8 1k TC=0,0 
.model        R_R8 RES R=1 DEV=2% TC1=0 TC2=0
R_Rd1         N25874 N18968 R_Rd1 0.3k TC=0,0 
.model        R_Rd1 RES R=1 DEV=5% TC1=0 TC2=0
V_V3         VCC 0 12V
R_R6         N18960 N18968 R_R6 1.2k TC=0,0 
.model        R_R6 RES R=1 DEV=5% TC1=0 TC2=0
R_R71         N25131 VCC R_R71 1k TC=0,0 
.model        R_R71 RES R=1 DEV=2% TC1=0 TC2=0
R_R2         N18868 DOM R_R2 110k TC=0,0 
.model        R_R2 RES R=1 DEV=1% TC1=0 TC2=0
R_R10         DOM N18960 R_R10 1k TC=0,0 
.model        R_R10 RES R=1 DEV=5% TC1=0 TC2=0
D_D4         N19118 VCC D1N4447 
R_Rr         N19118 VCC  390 TC=0,0 
X_U3A         N18960 0 VCC -VCC N18968 TL082
R_Rb         N18968 N19346 R_Rb 18k TC=0,0 
.model        R_Rb RES R=1 DEV=5% TC1=0 TC2=0
Q_Q12         N19118 N19346 0 BC546B 
R_R73         N194781 VREF R_R73 0.2k TC=0,0 
.model        R_R73 RES R=1 DEV=2% TC1=0 TC2=0
X_U2B         N19310 N18868 VCC -VCC DOM TL082
R_R3         N19040 N19310 R_R3 11k TC=0,0 
.model        R_R3 RES R=1 DEV=1% TC1=0 TC2=0
V_V2         -VCC 0 -12V
R_R1         VREF N18868 R_R1 11k TC=0,0 
.model        R_R1 RES R=1 DEV=1% TC1=0 TC2=0
D_D5         N25878 0 redled 
X_U5A         SENZ N19040 VCC -VCC N19040 TL082
Q_Q13         SENZ N18852 VCC BC556A 
Q_Q14         N18852 N18852 VCC BC556A 
R_Rd2         N25878 N25874 R_Rd2 0.11k TC=0,0 
.model        R_Rd2 RES R=1 DEV=5% TC1=0 TC2=0
.PARAM  r=50k

**** RESUMING wc.cir ****
.END

**** 05/22/23 12:32:11 **** PSpice 22.1.0 (9 December 2022) *** ID# 0 ********

 ** Profile: "SCHEMATIC1-wc"  [ d:\anul 2.2\sem 2\cad\proiect\proiectfinal-pspicefiles\schematic1\wc.sim ] 


 ****     Diode MODEL PARAMETERS


******************************************************************************




               redled          D1N4447         X_U3A.dx        X_U3A.dy        
          IS    1.360000E-09    1.071000E-09  800.000000E-18  800.000000E-18 
           N    5               1.698                                        
         ISR                    2.149000E-09                                 
          BV                  100                                            
         IBV                  100.000000E-06                                 
          RS    4.1024           .8383                          1.000000E-03 
          TT                   11.540000E-09                                 
         CJO                    2.000000E-12                   10.000000E-12 
          VJ                     .5                                          
           M                     .3333                                       


               X_U2B.dx        X_U2B.dy        X_U5A.dx        X_U5A.dy        
          IS  800.000000E-18  800.000000E-18  800.000000E-18  800.000000E-18 
          RS                    1.000000E-03                    1.000000E-03 
         CJO                   10.000000E-12                   10.000000E-12 


**** 05/22/23 12:32:11 **** PSpice 22.1.0 (9 December 2022) *** ID# 0 ********

 ** Profile: "SCHEMATIC1-wc"  [ d:\anul 2.2\sem 2\cad\proiect\proiectfinal-pspicefiles\schematic1\wc.sim ] 


 ****     BJT MODEL PARAMETERS


******************************************************************************




               BC546B          BC556A          
               NPN             PNP             
       LEVEL    1               1            
          IS    7.049000E-15    1.020000E-15 
          BF  374.6           174.7          
          NF    1               1            
         VAF   62.79           73.79         
         IKF     .08157          .1023       
         ISE   68.000000E-15   10.730000E-15 
          NE    1.576           1.644        
          BR    1               4.432        
          NR    1               1            
         IKR    3.924           2.237        
         ISC   12.400000E-15   14.740000E-15 
          NC    1.835           1.296        
          NK     .4767           .5033       
         ISS    0               0            
          RE    0               0            
          RC     .9747          1.039        
         CJE   11.500000E-12   30.000000E-12 
         VJE     .5              .5          
         MJE     .6715           .3333       
         CJC    5.250000E-12    9.810000E-12 
         VJC     .5697           .4865       
         MJC     .3147           .332        
        XCJC    1               1            
         CJS    0               0            
         VJS     .75             .75         
          TF  410.200000E-12  830.300000E-12 
         XTF   40.06           10.32         
         VTF   10              10            
         ITF    1.491            .8981       
          TR   10.000000E-09   10.000000E-09 
         XTB    1.5             1.5          
          KF    0               0            
          AF    1               1            
          CN    2.42            2.2          
           D     .87             .52         


**** 05/22/23 12:32:11 **** PSpice 22.1.0 (9 December 2022) *** ID# 0 ********

 ** Profile: "SCHEMATIC1-wc"  [ d:\anul 2.2\sem 2\cad\proiect\proiectfinal-pspicefiles\schematic1\wc.sim ] 


 ****     Junction FET MODEL PARAMETERS


******************************************************************************




               X_U3A.jx1       X_U3A.jx2       X_U2B.jx1       X_U2B.jx2       
               NJF             NJF             NJF             NJF             
         VTO   -1              -1              -1              -1            
        BETA  222.070000E-06  222.070000E-06  222.070000E-06  222.070000E-06 
          IS  100.000000E-12  100.000000E-12  100.000000E-12  100.000000E-12 


               X_U5A.jx1       X_U5A.jx2       
               NJF             NJF             
         VTO   -1              -1            
        BETA  222.070000E-06  222.070000E-06 
          IS  100.000000E-12  100.000000E-12 


**** 05/22/23 12:32:11 **** PSpice 22.1.0 (9 December 2022) *** ID# 0 ********

 ** Profile: "SCHEMATIC1-wc"  [ d:\anul 2.2\sem 2\cad\proiect\proiectfinal-pspicefiles\schematic1\wc.sim ] 


 ****     Resistor MODEL PARAMETERS


******************************************************************************




               R_R             R_R72           R_R4            R_R8            
           R    1               1               1               1            


               R_Rd1           R_R6            R_R71           R_R2            
           R    1               1               1               1            


               R_R10           R_Rb            R_R73           R_R3            
           R    1               1               1               1            


               R_R1            R_Rd2           
           R    1               1            



Mean Deviation =   -3.7678E-03
Sigma          =     .0167

 RUN                    MAX DEVIATION FROM NOMINAL

R_R R_R R                .0531  (3.18 sigma)  lower  at r =   60.0000E+03
                        (  -5.3927% change per 1% change in Model Parameter)

R_R8 R_R8 R              .0278  (1.66 sigma)  lower  at r =   60.0000E+03
                        (  -2.8238% change per 1% change in Model Parameter)

R_R71 R_R71 R            .0198  (1.19 sigma)  higher  at r =   50.0000E+03
                        (  22.982% change per 1% change in Model Parameter)

R_R3 R_R3 R            5.2118E-03  ( .31 sigma)  lower  at r =   60.0000E+03
                        (   -.5291% change per 1% change in Model Parameter)

R_R4 R_R4 R            5.2071E-03  ( .31 sigma)  higher  at r =   60.0000E+03
                        (    .5286% change per 1% change in Model Parameter)

R_R2 R_R2 R            4.3879E-03  ( .26 sigma)  higher  at r =   60.0000E+03
                        (    .4455% change per 1% change in Model Parameter)

R_R1 R_R1 R            4.1628E-03  ( .25 sigma)  lower  at r =   60.0000E+03
                        (   -.4226% change per 1% change in Model Parameter)

R_R72 R_R72 R          4.0047E-03  ( .24 sigma)  higher  at r =   50.0000E+03
                        (   4.6377% change per 1% change in Model Parameter)

R_R73 R_R73 R          3.9823E-03  ( .24 sigma)  higher  at r =   50.0000E+03
                        (   4.6117% change per 1% change in Model Parameter)

R_RD1 R_RD1 R         25.7490E-06  ( .00 sigma)  higher  at r =   58.0000E+03
                        (   3.1909E-03% change per 1% change in Model Parameter)

R_R6 R_R6 R           25.7490E-06  ( .00 sigma)  higher  at r =   58.0000E+03
                        (   3.1909E-03% change per 1% change in Model Parameter)

R_R10 R_R10 R         25.7490E-06  ( .00 sigma)  higher  at r =   58.0000E+03
                        (   3.1909E-03% change per 1% change in Model Parameter)

R_RB R_RB R           25.7490E-06  ( .00 sigma)  higher  at r =   58.0000E+03
                        (   3.1909E-03% change per 1% change in Model Parameter)

R_RD2 R_RD2 R         25.7490E-06  ( .00 sigma)  higher  at r =   58.0000E+03
                        (   3.1909E-03% change per 1% change in Model Parameter)


**** 05/22/23 12:32:11 **** PSpice 22.1.0 (9 December 2022) *** ID# 0 ********

 ** Profile: "SCHEMATIC1-wc"  [ d:\anul 2.2\sem 2\cad\proiect\proiectfinal-pspicefiles\schematic1\wc.sim ] 


 ****     UPDATED MODEL PARAMETERS         TEMPERATURE =   27.000 DEG C

                      WORST CASE ALL DEVICES

******************************************************************************



Device       MODEL        PARAMETER    NEW VALUE    
R_R          R_R          R                .99          (Decreased)  
R_R72        R_R72        R               1.02          (Increased)  
R_R4         R_R4         R               1.01          (Increased)  
R_R8         R_R8         R                .98          (Decreased)  
R_Rd1        R_Rd1        R               1.05          (Increased)  
R_R6         R_R6         R               1.05          (Increased)  
R_R71        R_R71        R               1.02          (Increased)  
R_R2         R_R2         R               1.01          (Increased)  
R_R10        R_R10        R               1.05          (Increased)  
R_Rb         R_Rb         R               1.05          (Increased)  
R_R73        R_R73        R               1.02          (Increased)  
R_R3         R_R3         R                .99          (Decreased)  
R_R1         R_R1         R                .99          (Decreased)  
R_Rd2        R_Rd2        R               1.05          (Increased)  
    

**** 05/22/23 12:32:11 **** PSpice 22.1.0 (9 December 2022) *** ID# 0 ********

 ** Profile: "SCHEMATIC1-wc"  [ d:\anul 2.2\sem 2\cad\proiect\proiectfinal-pspicefiles\schematic1\wc.sim ] 


 ****     SORTED DEVIATIONS OF V(DOM)      TEMPERATURE =   27.000 DEG C

                      WORST CASE SUMMARY

******************************************************************************





Mean Deviation =    1.8149
Sigma          =    0     

 RUN                    MAX DEVIATION FROM NOMINAL

WORST CASE ALL DEVICES
                        1.8149  higher  at r =   58.0000E+03
                        ( 122.49% of Nominal)



          JOB CONCLUDED

**** 05/22/23 12:32:11 **** PSpice 22.1.0 (9 December 2022) *** ID# 0 ********

 ** Profile: "SCHEMATIC1-wc"  [ d:\anul 2.2\sem 2\cad\proiect\proiectfinal-pspicefiles\schematic1\wc.sim ] 


 ****     JOB STATISTICS SUMMARY


******************************************************************************



  Total job time (using Solver 1)   =         .11
